
##########################################################################
#               Crystallographic Information Format file
#               Produced by PyCifRW module
#
#  This is a CIF file.  CIF has been adopted by the International
#  Union of Crystallography as the standard for data archiving and
#  transmission.
#
#  For information on this file format, follow the CIF links at
#  http://www.iucr.org
##########################################################################

data_0

loop_
  _atom_site_label
  _atom_site_fract_x
  _atom_site_fract_y
  _atom_site_fract_z
  _atom_site_type_symbol
         Mo1       0.3333333333349515  0.6666666666908231  0.4999998571600258  Mo       
         S1        0.0       0.0       0.5685095830216912  S         
         S2        0.6666666666517856  0.33333333334541154           0.4314905598161267 S
_cell_angle_alpha                       90.0
_cell_angle_beta                        90.0
_cell_angle_gamma                       119.9999999980875
_cell_length_a                          3.1867374979
_cell_length_b                          3.186737497984241
_cell_length_c                          23.1892369035